Version 4
SHEET 1 1840 992
WIRE 192 112 128 112
WIRE 240 112 192 112
WIRE 368 112 320 112
WIRE 480 112 448 112
WIRE 656 112 544 112
WIRE 192 144 192 112
WIRE 128 192 128 112
WIRE 192 256 192 224
WIRE 128 352 128 256
WIRE 192 352 192 320
WIRE 192 352 128 352
WIRE 544 352 544 320
WIRE 544 352 192 352
WIRE 656 352 656 112
WIRE 656 352 544 352
WIRE 544 400 544 352
FLAG 544 400 0
SYMBOL cap 176 256 R0
SYMATTR InstName C1
SYMATTR Value 518µ
SYMATTR SpiceLine V=400 Irms=1000 Rser=0 Lser=0
SYMATTR SpiceLine2 IC=400
SYMBOL ind 224 128 R270
WINDOW 0 32 56 VTop 2
WINDOW 3 5 56 VBottom 2
SYMATTR InstName L2
SYMATTR Value 30µ
SYMATTR SpiceLine Ipk=6000 Rser=0 Cpar=0
SYMBOL Misc\\SCR 480 128 R270
SYMATTR InstName U2
SYMATTR Value S8070W
SYMBOL voltage 544 224 R0
WINDOW 123 0 0 Left 0
WINDOW 39 0 0 Left 0
SYMATTR InstName V1
SYMATTR Value PULSE(0 5 0.00 0 0 0.001 1 2)
SYMBOL res 176 128 R0
SYMATTR InstName R1
SYMATTR Value 0.09
SYMBOL diode 144 256 R180
WINDOW 0 24 64 Left 2
WINDOW 3 24 0 Left 2
SYMATTR InstName D2
SYMATTR Value RFN60TS6D
SYMBOL res 464 96 R90
WINDOW 0 0 56 VBottom 2
WINDOW 3 32 56 VTop 2
SYMATTR InstName R2
SYMATTR Value 0.140
SYMBOL res 528 144 R0
SYMATTR InstName R3
SYMATTR Value 1
TEXT 64 376 Left 2 !.tran 0 10ms 0 0.025ms
TEXT 128 528 Left 2 !.SUBCKT S8070W     1  2             3\n*       TERMINALS: A  G             K\nQpnp    6          4  1             Pfor      OFF\nQnpn    4          6  5             Nfor      OFF\nRfor    6          4  500MEG\nRrev    1          4  500MEG\nRshort  6          5  10\nRlat    2          6  2.64\nRon     3          5  1.2m\nDfor    6          4  Zbrk\nDrev    1          4  Zbrk\nDgate   6          5  Zgate\n.MODEL  Zbrk       D  (IS=10F       IBV=1U    BV=800)\n.MODEL  Zgate      D  (IS=10F       IBV=100U  BV=10      VJ=0.3)\n.MODEL  Pfor       PNP(IS=10P       BF=3.5    CJE=250p   CJC=250p   TF=0.3U)\n.MODEL  Nfor       NPN(IS=10P       ISE=1E-9  BF=100.0   RC=13.6M   CJE=1250p   CJC=250p    TF=0.3U)\n.ENDS
